Infrared Spectrum: Nitrocellulose
Formula: C 6 H 9 ( N O 2 ) O 5 ; C 6 H 8 ( N O 2 ) 2 O 5 ; C 6 H 7 ( N O 2 ) 3 O 5
CAS: 9004-70-0
State: solid
Instrument: Bruker IR Cube FTIR
Resolution: 0.96450084
Origin: Pacific Northwest National Laboratory Under IARPA Contract
1/cm	Reflectance
7498.99	0.68973
7481.63	0.697918
7464.27	0.696069
7446.91	0.675625
7429.55	0.654762
7412.19	0.632753
7394.83	0.629023
7377.47	0.638652
7360.11	0.633023
7342.74	0.606877
7325.38	0.603114
7308.02	0.591696
7290.66	0.573213
7273.3	0.561725
7255.94	0.547095
7238.58	0.522082
7221.22	0.489608
7203.86	0.452107
7186.5	0.436995
7169.13	0.408561
7151.77	0.376702
7134.41	0.3551
7117.05	0.339282
7099.69	0.324536
7082.33	0.316035
7064.97	0.309749
7047.61	0.304614
7030.25	0.298488
7012.89	0.291385
6995.52	0.288138
6978.16	0.285869
6960.8	0.282055
6943.44	0.27839
6926.08	0.2774
6908.72	0.277049
6891.36	0.276544
6874	0.277032
6856.64	0.277267
6839.28	0.277446
6821.91	0.279834
6804.55	0.283693
6787.19	0.286882
6769.83	0.289699
6752.47	0.293445
6735.11	0.298027
6717.75	0.303569
6700.39	0.310633
6683.03	0.315908
6665.67	0.321344
6648.3	0.328519
6630.94	0.334637
6613.58	0.338813
6596.22	0.342417
6578.86	0.348832
6561.5	0.355357
6544.14	0.360337
6526.78	0.364832
6509.42	0.370078
6492.06	0.377458
6474.69	0.383435
6457.33	0.387859
6439.97	0.39333
6422.61	0.399862
6405.25	0.405027
6387.89	0.40913
6370.53	0.414057
6353.17	0.418622
6335.81	0.423022
6318.44	0.427342
6301.08	0.43101
6283.72	0.435181
6266.36	0.438949
6249	0.442181
6231.64	0.445646
6214.28	0.449016
6196.92	0.451672
6179.56	0.453714
6162.2	0.45599
6144.83	0.458208
6127.47	0.460459
6110.11	0.46238
6092.75	0.464446
6075.39	0.465034
6058.03	0.464688
6040.67	0.465027
6023.31	0.462243
6005.95	0.460039
5988.59	0.459743
5971.22	0.463914
5953.86	0.463729
5936.5	0.462885
5919.14	0.456736
5901.78	0.449119
5884.42	0.442167
5867.06	0.432778
5849.7	0.420695
5832.34	0.422211
5814.98	0.428687
5797.61	0.434475
5780.25	0.43613
5762.89	0.435268
5745.53	0.432055
5728.17	0.426669
5710.81	0.421207
5693.45	0.416179
5676.09	0.411695
5658.73	0.406409
5641.37	0.400171
5624	0.39685
5606.64	0.394489
5589.28	0.392588
5571.92	0.393109
5554.56	0.392743
5537.2	0.392576
5519.84	0.39256
5502.48	0.390883
5485.12	0.390723
5467.76	0.389295
5450.39	0.387476
5433.03	0.385161
5415.67	0.37893
5398.31	0.368574
5380.95	0.353647
5363.59	0.331839
5346.23	0.301738
5328.87	0.26731
5311.51	0.229159
5294.15	0.192903
5276.78	0.16007
5259.42	0.142461
5242.06	0.137011
5224.7	0.134857
5207.34	0.13256
5189.98	0.130989
5172.62	0.131684
5155.26	0.133168
5137.9	0.135726
5120.53	0.138532
5103.17	0.14275
5085.81	0.146761
5068.45	0.150764
5051.09	0.156105
5033.73	0.162317
5016.37	0.167437
4999.01	0.17299
4981.65	0.178495
4964.29	0.183503
4946.92	0.189735
4929.56	0.194988
4912.2	0.201274
4894.84	0.207175
4877.48	0.213881
4860.12	0.219838
4842.76	0.226278
4825.4	0.232741
4808.04	0.240136
4790.68	0.247
4773.31	0.253201
4755.95	0.259541
4738.59	0.265966
4721.23	0.270758
4703.87	0.274755
4686.51	0.278305
4669.15	0.280368
4651.79	0.281169
4634.43	0.284309
4617.07	0.289456
4599.7	0.292119
4582.34	0.292562
4564.98	0.292045
4547.62	0.292091
4530.26	0.293732
4512.9	0.2943
4495.54	0.29157
4478.18	0.278536
4460.82	0.256781
4443.46	0.247675
4426.09	0.251917
4408.73	0.252764
4391.37	0.244677
4374.01	0.230258
4356.65	0.215689
4339.29	0.212185
4321.93	0.212091
4304.57	0.20793
4287.21	0.203097
4269.85	0.193377
4252.48	0.186494
4235.12	0.190984
4217.76	0.193454
4200.4	0.19174
4183.04	0.187346
4165.68	0.184152
4148.32	0.17995
4130.96	0.17408
4113.6	0.168525
4096.24	0.163521
4078.87	0.158135
4061.51	0.15264
4044.15	0.147426
4026.79	0.14251
4009.43	0.138591
3992.07	0.135456
3974.71	0.133932
3957.35	0.133955
3939.99	0.135188
3922.62	0.135151
3905.26	0.135724
3887.9	0.136248
3870.54	0.136137
3853.18	0.134582
3835.82	0.131446
3818.46	0.127382
3801.1	0.122696
3783.74	0.117284
3766.38	0.109855
3749.01	0.100593
3731.65	0.0905937
3714.29	0.0770339
3696.93	0.0570872
3679.57	0.0406984
3662.21	0.0346802
3644.85	0.0322523
3627.49	0.0306124
3610.13	0.0289269
3592.77	0.0280486
3575.4	0.0268964
3558.04	0.0267636
3540.68	0.0259957
3523.32	0.0262585
3505.96	0.0256907
3488.6	0.0260782
3471.24	0.0255771
3453.88	0.0257598
3436.52	0.0257355
3419.16	0.025641
3401.79	0.0259801
3384.43	0.0261548
3367.07	0.0266421
3349.71	0.0268025
3332.35	0.0273867
3314.99	0.0270163
3297.63	0.0269787
3280.27	0.0271467
3262.91	0.0274766
3245.55	0.0275348
3228.18	0.0277338
3210.82	0.0284412
3193.46	0.0284822
3176.1	0.0288908
3158.74	0.0293271
3141.38	0.0301048
3124.02	0.0309604
3106.66	0.032095
3089.3	0.032569
3071.94	0.0336563
3054.57	0.0348579
3037.21	0.0356997
3019.85	0.0364907
3002.49	0.0360696
2985.13	0.0341954
2967.77	0.0346042
2950.41	0.0370757
2933.05	0.0355446
2915.69	0.0360104
2898.33	0.0392081
2880.96	0.0456621
2863.6	0.0548594
2846.24	0.0610412
2828.88	0.065065
2811.52	0.0686198
2794.16	0.0728319
2776.8	0.0763943
2759.44	0.0791143
2742.08	0.0810021
2724.71	0.0839162
2707.35	0.087478
2689.99	0.0892121
2672.63	0.0887775
2655.27	0.0870211
2637.91	0.0883948
2620.55	0.0914809
2603.19	0.0934754
2585.83	0.0898025
2568.47	0.0792104
2551.1	0.0745927
2533.74	0.0882618
2516.38	0.0891816
2499.02	0.0870286
2481.66	0.0883236
2464.3	0.0883432
2446.94	0.0870114
2429.58	0.0853037
2412.22	0.0828469
2394.86	0.0802266
2377.49	0.0781655
2360.13	0.0764588
2342.77	0.0746615
2325.41	0.0726624
2308.05	0.0706152
2290.69	0.0685356
2273.33	0.0666645
2255.97	0.0647499
2238.61	0.0629148
2221.25	0.0612394
2203.88	0.0596349
2186.52	0.0580419
2169.16	0.0564474
2151.8	0.0551855
2134.44	0.055174
2117.08	0.0555629
2099.72	0.056155
2082.36	0.0566588
2065	0.057098
2047.64	0.0576035
2030.27	0.0582256
2012.91	0.0589132
1995.55	0.0603906
1978.19	0.0616699
1960.83	0.0633407
1943.47	0.0644478
1926.11	0.0641959
1908.75	0.0638489
1891.39	0.0639991
1874.03	0.0632945
1856.66	0.0617219
1839.3	0.0589325
1821.94	0.0561207
1804.58	0.0515415
1787.22	0.04516
1769.86	0.0381881
1752.5	0.0313114
1735.14	0.024882
1717.78	0.0189994
1700.41	0.0125389
1683.05	0.0127251
1665.69	0.024778
1648.33	0.0329543
1630.97	0.0331043
1613.61	0.0300045
1596.25	0.0322479
1578.89	0.0358256
1561.53	0.0377967
1544.17	0.0390095
1526.8	0.0395252
1509.44	0.038472
1492.08	0.0368203
1474.72	0.0356479
1457.36	0.0269183
1440	0.0272572
1422.64	0.0238193
1405.28	0.026296
1387.92	0.0203734
1370.56	0.0202072
1353.19	0.0216827
1335.83	0.0165416
1318.47	0.0155252
1301.11	0.0122656
1283.75	0.0354931
1266.39	0.0350014
1249.03	0.0321711
1231.67	0.037272
1214.31	0.0291905
1196.95	0.0292854
1179.58	0.0195267
1162.22	0.0188834
1144.86	0.0191951
1127.5	0.0165177
1110.14	0.0175715
1092.78	0.0174825
1075.42	0.0235941
1058.06	0.0291645
1040.7	0.0242838
1023.34	0.0239072
1005.97	0.0243222
988.613	0.0290557
971.252	0.0338682
953.891	0.0335254
936.53	0.0295684
919.169	0.0228789
901.808	0.0203425
884.447	0.0172225
867.086	0.0172967
849.725	0.0259122
832.364	0.0385689
815.003	0.0375761
797.642	0.0358263
780.281	0.0320299
762.92	0.0254824
745.559	0.0267718
728.198	0.0284406
710.837	0.0256981
693.476	0.0275503
676.115	0.0296548
658.754	0.0296068
641.393	0.0352889
624.032	0.0380229
606.671	0.0441479
